<?xml version="1.0" encoding="UTF-8"?>

<!-- generated on 2025-12-29T21:53:53.189542-05:00 by Eclipse SUMO netedit 1.25.0
<neteditConfiguration xmlns:xsi="http://www.w3.org/2001/XMLSchema-instance" xsi:noNamespaceSchemaLocation="http://sumo.dlr.de/xsd/neteditConfiguration.xsd">

    <input>
        <sumo-net-file value="C:\Users\fisgo\Downloads\red.net.xml"/>
    </input>

    <output>
        <output-file value="C:\Users\fisgo\Downloads\red.net.xml"/>
    </output>

    <processing>
        <geometry.min-radius.fix.railways value="false"/>
        <geometry.avoid-overlap value="false"/>
        <geometry.max-grade.fix value="false"/>
        <offset.disable-normalization value="true"/>
        <lefthand value="0"/>
    </processing>

    <junctions>
        <no-turnarounds value="true"/>
        <junctions.corner-detail value="5"/>
        <junctions.limit-turn-speed value="5.50"/>
        <rectangular-lane-cut value="0"/>
    </junctions>

    <pedestrian>
        <walkingareas value="0"/>
    </pedestrian>

</neteditConfiguration>
-->

<net version="1.20" junctionCornerDetail="5" limitTurnSpeed="5.50" avoidOverlap="0" xmlns:xsi="http://www.w3.org/2001/XMLSchema-instance" xsi:noNamespaceSchemaLocation="http://sumo.dlr.de/xsd/net_file.xsd">

    <location netOffset="0.00,0.00" convBoundary="-34.74,-67.01,41.38,16.58" origBoundary="-10000000000.00,-10000000000.00,10000000000.00,10000000000.00" projParameter="!"/>

    <edge id=":J19_0" function="internal">
        <lane id=":J19_0_0" index="0" speed="6.51" length="9.03" shape="-0.69,-17.33 -1.04,-19.78 -2.09,-21.52 -3.84,-22.57 -6.29,-22.92"/>
    </edge>
    <edge id=":J19_1" function="internal">
        <lane id=":J19_1_0" index="0" speed="13.89" length="20.80" shape="-0.69,-17.33 -0.69,-38.13"/>
        <lane id=":J19_1_1" index="1" speed="13.89" length="20.80" shape="2.51,-17.33 2.51,-38.13"/>
    </edge>
    <edge id=":J19_3" function="internal">
        <lane id=":J19_3_0" index="0" speed="9.26" length="5.02" shape="2.51,-17.33 3.22,-22.29"/>
    </edge>
    <edge id=":J19_16" function="internal">
        <lane id=":J19_16_0" index="0" speed="9.26" length="14.34" shape="3.22,-22.29 3.26,-22.58 5.51,-26.33 9.26,-28.58 14.51,-29.33"/>
    </edge>
    <edge id=":J19_4" function="internal">
        <lane id=":J19_4_0" index="0" speed="6.51" length="9.04" shape="14.51,-22.93 12.06,-22.58 10.31,-21.53 9.26,-19.78 8.91,-17.33"/>
    </edge>
    <edge id=":J19_5" function="internal">
        <lane id=":J19_5_0" index="0" speed="13.89" length="20.80" shape="14.51,-22.93 -6.29,-22.92"/>
        <lane id=":J19_5_1" index="1" speed="13.89" length="20.80" shape="14.51,-26.13 -6.29,-26.12"/>
    </edge>
    <edge id=":J19_7" function="internal">
        <lane id=":J19_7_0" index="0" speed="9.26" length="5.00" shape="14.51,-26.13 9.56,-26.84"/>
    </edge>
    <edge id=":J19_17" function="internal">
        <lane id=":J19_17_0" index="0" speed="9.26" length="14.35" shape="9.56,-26.84 9.26,-26.88 5.51,-29.13 3.26,-32.88 2.51,-38.13"/>
    </edge>
    <edge id=":J19_8" function="internal">
        <lane id=":J19_8_0" index="0" speed="6.51" length="9.03" shape="8.91,-38.13 9.26,-35.68 10.31,-33.93 12.06,-32.88 14.51,-32.53"/>
    </edge>
    <edge id=":J19_9" function="internal">
        <lane id=":J19_9_0" index="0" speed="13.89" length="20.80" shape="8.91,-38.13 8.91,-17.33"/>
        <lane id=":J19_9_1" index="1" speed="13.89" length="20.80" shape="5.71,-38.13 5.71,-17.33"/>
    </edge>
    <edge id=":J19_11" function="internal">
        <lane id=":J19_11_0" index="0" speed="9.26" length="5.01" shape="5.71,-38.13 5.00,-33.17"/>
    </edge>
    <edge id=":J19_18" function="internal">
        <lane id=":J19_18_0" index="0" speed="9.26" length="14.35" shape="5.00,-33.17 4.96,-32.88 2.71,-29.13 -1.04,-26.88 -6.29,-26.12"/>
    </edge>
    <edge id=":J19_12" function="internal">
        <lane id=":J19_12_0" index="0" speed="6.51" length="9.04" shape="-6.30,-32.52 -3.84,-32.87 -2.09,-33.93 -1.04,-35.68 -0.69,-38.13"/>
    </edge>
    <edge id=":J19_13" function="internal">
        <lane id=":J19_13_0" index="0" speed="13.89" length="20.81" shape="-6.30,-32.52 14.51,-32.53"/>
        <lane id=":J19_13_1" index="1" speed="13.89" length="20.81" shape="-6.30,-29.32 14.51,-29.33"/>
    </edge>
    <edge id=":J19_15" function="internal">
        <lane id=":J19_15_0" index="0" speed="9.26" length="5.03" shape="-6.30,-29.32 -1.32,-28.61"/>
    </edge>
    <edge id=":J19_19" function="internal">
        <lane id=":J19_19_0" index="0" speed="9.26" length="14.33" shape="-1.32,-28.61 -1.04,-28.58 2.71,-26.33 4.96,-22.58 5.71,-17.33"/>
    </edge>

    <edge id="-E10" from="J19" to="J21" priority="-1">
        <lane id="-E10_0" index="0" speed="13.89" length="28.88" shape="-0.69,-38.13 -0.69,-67.01"/>
        <lane id="-E10_1" index="1" speed="13.89" length="28.88" shape="2.51,-38.13 2.51,-67.01"/>
    </edge>
    <edge id="-E11" from="J22" to="J19" priority="-1">
        <lane id="-E11_0" index="0" speed="13.89" length="26.87" shape="41.38,-22.93 14.51,-22.93"/>
        <lane id="-E11_1" index="1" speed="13.89" length="26.87" shape="41.38,-26.13 14.51,-26.13"/>
    </edge>
    <edge id="-E12" from="J19" to="J23" priority="-1">
        <lane id="-E12_0" index="0" speed="13.89" length="28.45" shape="-6.29,-22.92 -34.74,-22.90"/>
        <lane id="-E12_1" index="1" speed="13.89" length="28.45" shape="-6.29,-26.12 -34.74,-26.10"/>
    </edge>
    <edge id="-E9" from="J20" to="J19" priority="-1">
        <lane id="-E9_0" index="0" speed="13.89" length="33.91" shape="-0.69,16.58 -0.69,-17.33"/>
        <lane id="-E9_1" index="1" speed="13.89" length="33.91" shape="2.51,16.58 2.51,-17.33"/>
    </edge>
    <edge id="E10" from="J21" to="J19" priority="-1">
        <lane id="E10_0" index="0" speed="13.89" length="28.88" shape="8.91,-67.01 8.91,-38.13"/>
        <lane id="E10_1" index="1" speed="13.89" length="28.88" shape="5.71,-67.01 5.71,-38.13"/>
    </edge>
    <edge id="E11" from="J19" to="J22" priority="-1">
        <lane id="E11_0" index="0" speed="13.89" length="26.87" shape="14.51,-32.53 41.38,-32.53"/>
        <lane id="E11_1" index="1" speed="13.89" length="26.87" shape="14.51,-29.33 41.38,-29.33"/>
    </edge>
    <edge id="E12" from="J23" to="J19" priority="-1">
        <lane id="E12_0" index="0" speed="13.89" length="28.45" shape="-34.74,-32.50 -6.30,-32.52"/>
        <lane id="E12_1" index="1" speed="13.89" length="28.45" shape="-34.74,-29.30 -6.30,-29.32"/>
    </edge>
    <edge id="E9" from="J19" to="J20" priority="-1">
        <lane id="E9_0" index="0" speed="13.89" length="33.91" shape="8.91,-17.33 8.91,16.58"/>
        <lane id="E9_1" index="1" speed="13.89" length="33.91" shape="5.71,-17.33 5.71,16.58"/>
    </edge>

    <tlLogic id="J19" type="static" programID="0" offset="0">
        <phase duration="42" state="GGGgrrrrGGGgrrrr"/>
        <phase duration="3"  state="yyyyrrrryyyyrrrr"/>
        <phase duration="42" state="rrrrGGGgrrrrGGGg"/>
        <phase duration="3"  state="rrrryyyyrrrryyyy"/>
    </tlLogic>

    <junction id="J19" type="traffic_light" x="4.11" y="-27.73" incLanes="-E9_0 -E9_1 -E11_0 -E11_1 E10_0 E10_1 E12_0 E12_1" intLanes=":J19_0_0 :J19_1_0 :J19_1_1 :J19_16_0 :J19_4_0 :J19_5_0 :J19_5_1 :J19_17_0 :J19_8_0 :J19_9_0 :J19_9_1 :J19_18_0 :J19_12_0 :J19_13_0 :J19_13_1 :J19_19_0" shape="-2.29,-17.33 10.51,-17.33 10.95,-19.55 11.51,-20.33 12.29,-20.89 13.29,-21.22 14.51,-21.33 14.51,-34.13 12.29,-34.57 11.51,-35.13 10.95,-35.91 10.62,-36.91 10.51,-38.13 -2.29,-38.13 -2.74,-35.90 -3.29,-35.13 -4.07,-34.57 -5.07,-34.23 -6.30,-34.12 -6.29,-21.32 -4.07,-20.88 -3.29,-20.32 -2.73,-19.55 -2.40,-18.55">
        <request index="0"  response="0000000000000000" foes="0000000001100000" cont="0"/>
        <request index="1"  response="1000000000000000" foes="1111100011100000" cont="0"/>
        <request index="2"  response="1000000010000000" foes="1111100011100000" cont="0"/>
        <request index="3"  response="1000011010000000" foes="1110011011100000" cont="1"/>
        <request index="4"  response="0000011000000000" foes="0000011000000000" cont="0"/>
        <request index="5"  response="0000111000001111" foes="1000111000001111" cont="0"/>
        <request index="6"  response="0000111000001111" foes="1000111000001111" cont="0"/>
        <request index="7"  response="0110111000001110" foes="0110111000001110" cont="1"/>
        <request index="8"  response="0000000000000000" foes="0110000000000000" cont="0"/>
        <request index="9"  response="0000000010000000" foes="1110000011111000" cont="0"/>
        <request index="10" response="1000000010000000" foes="1110000011111000" cont="0"/>
        <request index="11" response="1000000010000110" foes="1110000011100110" cont="1"/>
        <request index="12" response="0000000000000110" foes="0000000000000110" cont="0"/>
        <request index="13" response="0000111100001110" foes="0000111110001110" cont="0"/>
        <request index="14" response="0000111100001110" foes="0000111110001110" cont="0"/>
        <request index="15" response="0000111001101110" foes="0000111001101110" cont="1"/>
    </junction>
    <junction id="J20" type="dead_end" x="4.11" y="16.58" incLanes="E9_0 E9_1" intLanes="" shape="4.11,16.58 10.51,16.58 4.11,16.58"/>
    <junction id="J21" type="dead_end" x="4.11" y="-67.01" incLanes="-E10_0 -E10_1" intLanes="" shape="4.11,-67.01 -2.29,-67.01 4.11,-67.01"/>
    <junction id="J22" type="dead_end" x="41.38" y="-27.73" incLanes="E11_0 E11_1" intLanes="" shape="41.38,-27.73 41.38,-34.13 41.38,-27.73"/>
    <junction id="J23" type="dead_end" x="-34.74" y="-27.70" incLanes="-E12_0 -E12_1" intLanes="" shape="-34.74,-27.70 -34.74,-21.30 -34.74,-27.70"/>

    <junction id=":J19_16_0" type="internal" x="3.22" y="-22.29" incLanes=":J19_3_0 E10_0 E10_1" intLanes=":J19_5_0 :J19_5_1 :J19_7_0 :J19_8_0 :J19_9_0 :J19_9_1 :J19_13_0 :J19_13_1 :J19_15_0"/>
    <junction id=":J19_17_0" type="internal" x="9.56" y="-26.84" incLanes=":J19_7_0 E12_0 E12_1" intLanes=":J19_1_0 :J19_1_1 :J19_3_0 :J19_9_0 :J19_9_1 :J19_11_0 :J19_12_0 :J19_13_0 :J19_13_1"/>
    <junction id=":J19_18_0" type="internal" x="5.00" y="-33.17" incLanes=":J19_11_0 -E9_0 -E9_1" intLanes=":J19_0_0 :J19_1_0 :J19_1_1 :J19_5_0 :J19_5_1 :J19_7_0 :J19_13_0 :J19_13_1 :J19_15_0"/>
    <junction id=":J19_19_0" type="internal" x="-1.32" y="-28.61" incLanes=":J19_15_0 -E11_0 -E11_1" intLanes=":J19_1_0 :J19_1_1 :J19_3_0 :J19_4_0 :J19_5_0 :J19_5_1 :J19_9_0 :J19_9_1 :J19_11_0"/>

    <connection from="-E11" to="E9" fromLane="0" toLane="0" via=":J19_4_0" tl="J19" linkIndex="4" dir="r" state="o"/>
    <connection from="-E11" to="-E12" fromLane="0" toLane="0" via=":J19_5_0" tl="J19" linkIndex="5" dir="s" state="o"/>
    <connection from="-E11" to="-E12" fromLane="1" toLane="1" via=":J19_5_1" tl="J19" linkIndex="6" dir="s" state="o"/>
    <connection from="-E11" to="-E10" fromLane="1" toLane="1" via=":J19_7_0" tl="J19" linkIndex="7" dir="l" state="o"/>
    <connection from="-E9" to="-E12" fromLane="0" toLane="0" via=":J19_0_0" tl="J19" linkIndex="0" dir="r" state="O"/>
    <connection from="-E9" to="-E10" fromLane="0" toLane="0" via=":J19_1_0" tl="J19" linkIndex="1" dir="s" state="O"/>
    <connection from="-E9" to="-E10" fromLane="1" toLane="1" via=":J19_1_1" tl="J19" linkIndex="2" dir="s" state="O"/>
    <connection from="-E9" to="E11" fromLane="1" toLane="1" via=":J19_3_0" tl="J19" linkIndex="3" dir="l" state="o"/>
    <connection from="E10" to="E11" fromLane="0" toLane="0" via=":J19_8_0" tl="J19" linkIndex="8" dir="r" state="O"/>
    <connection from="E10" to="E9" fromLane="0" toLane="0" via=":J19_9_0" tl="J19" linkIndex="9" dir="s" state="O"/>
    <connection from="E10" to="E9" fromLane="1" toLane="1" via=":J19_9_1" tl="J19" linkIndex="10" dir="s" state="O"/>
    <connection from="E10" to="-E12" fromLane="1" toLane="1" via=":J19_11_0" tl="J19" linkIndex="11" dir="l" state="o"/>
    <connection from="E12" to="-E10" fromLane="0" toLane="0" via=":J19_12_0" tl="J19" linkIndex="12" dir="r" state="o"/>
    <connection from="E12" to="E11" fromLane="0" toLane="0" via=":J19_13_0" tl="J19" linkIndex="13" dir="s" state="o"/>
    <connection from="E12" to="E11" fromLane="1" toLane="1" via=":J19_13_1" tl="J19" linkIndex="14" dir="s" state="o"/>
    <connection from="E12" to="E9" fromLane="1" toLane="1" via=":J19_15_0" tl="J19" linkIndex="15" dir="l" state="o"/>

    <connection from=":J19_0" to="-E12" fromLane="0" toLane="0" dir="r" state="M"/>
    <connection from=":J19_1" to="-E10" fromLane="0" toLane="0" dir="s" state="M"/>
    <connection from=":J19_1" to="-E10" fromLane="1" toLane="1" dir="s" state="M"/>
    <connection from=":J19_3" to="E11" fromLane="0" toLane="1" via=":J19_16_0" dir="l" state="m"/>
    <connection from=":J19_16" to="E11" fromLane="0" toLane="1" dir="l" state="M"/>
    <connection from=":J19_4" to="E9" fromLane="0" toLane="0" dir="r" state="M"/>
    <connection from=":J19_5" to="-E12" fromLane="0" toLane="0" dir="s" state="M"/>
    <connection from=":J19_5" to="-E12" fromLane="1" toLane="1" dir="s" state="M"/>
    <connection from=":J19_7" to="-E10" fromLane="0" toLane="1" via=":J19_17_0" dir="l" state="m"/>
    <connection from=":J19_17" to="-E10" fromLane="0" toLane="1" dir="l" state="M"/>
    <connection from=":J19_8" to="E11" fromLane="0" toLane="0" dir="r" state="M"/>
    <connection from=":J19_9" to="E9" fromLane="0" toLane="0" dir="s" state="M"/>
    <connection from=":J19_9" to="E9" fromLane="1" toLane="1" dir="s" state="M"/>
    <connection from=":J19_11" to="-E12" fromLane="0" toLane="1" via=":J19_18_0" dir="l" state="m"/>
    <connection from=":J19_18" to="-E12" fromLane="0" toLane="1" dir="l" state="M"/>
    <connection from=":J19_12" to="-E10" fromLane="0" toLane="0" dir="r" state="M"/>
    <connection from=":J19_13" to="E11" fromLane="0" toLane="0" dir="s" state="M"/>
    <connection from=":J19_13" to="E11" fromLane="1" toLane="1" dir="s" state="M"/>
    <connection from=":J19_15" to="E9" fromLane="0" toLane="1" via=":J19_19_0" dir="l" state="m"/>
    <connection from=":J19_19" to="E9" fromLane="0" toLane="1" dir="l" state="M"/>

</net>
